110
TS_RR_C5.log	Energy: -1757321.4950914
Fe         0.61755        0.39463       -0.26403
N         -0.55381       -1.20209       -0.65592
N         -0.97204        1.42017        0.38735
N          1.78890        2.02848        0.02804
N          2.18641       -0.57607       -1.13357
C         -2.27758        0.99559        0.39639
C         -3.15123        2.03103        0.94039
C         -4.64714        1.96387        0.99916
C         -5.30548        2.45658       -0.30064
C         -6.85836        2.52667       -0.25915
C         -1.90681       -1.29397       -0.45754
C         -2.38717       -2.63315       -0.79476
C         -3.81258       -3.07785       -0.66603
C         -4.80349       -2.36694       -1.61871
C         -5.95690       -1.58737       -0.91677
C         -1.28818       -3.34050       -1.20374
C         -0.15341       -2.42910       -1.12124
C         -1.19822       -4.76655       -1.65194
C          2.21898       -1.87532       -1.55865
C          3.52913       -2.19157       -2.11813
C          3.90056       -3.49965       -2.63778
C          4.87371       -3.77572       -3.52289
C          4.28108       -1.03657       -2.01839
C          3.42958       -0.04777       -1.38687
C          5.70821       -0.82965       -2.41976
C          3.11343        2.16079       -0.30227
C          3.61959        3.45501        0.15558
C          4.97992        3.97478        0.06491
C          6.12959        3.28073        0.09840
C          2.54501        4.10587        0.72464
C          1.42052        3.19856        0.63716
C          2.50551        5.46044        1.36146
C         -2.71805       -0.26605        0.01069
C          0.13071        3.50275        1.06506
C          3.84855        1.22677       -1.02073
C          1.13583       -2.74992       -1.52490
C         -2.33673        3.07941        1.27796
C         -0.98129        2.68693        0.92179
C         -2.72061        4.40466        1.86113
O         -7.42682        2.63435       -1.38064
O         -6.87757       -1.18998       -1.67734
O         -7.40872        2.49669        0.87574
O         -5.86094       -1.39186        0.32983
H          5.05392        5.06051        0.00100
H          3.31717       -4.33815       -2.25872
H         -3.86281       -4.16271       -0.80929
H         -4.16652       -2.87107        0.35100
H         -5.00555        1.81776       -1.14088
H         -4.92795        3.46213       -0.54092
H          6.16239        2.20304        0.21801
H          7.08609        3.79056        0.03007
H          5.48151       -3.00568       -3.98589
H          5.07297       -4.79994       -3.82438
H         -5.25398       -3.07896       -2.32000
H         -4.27040       -1.63775       -2.24316
H         -3.77762        4.41673        2.14228
H         -2.55890        5.22491        1.14906
H         -2.13285        4.64101        2.75708
H          1.69606        6.07437        0.94838
H          3.44406        6.00169        1.21472
H          2.33257        5.39108        2.44343
H          6.18076       -0.02474       -1.84913
H          5.80417       -0.57123       -3.48309
H          6.29153       -1.74316       -2.26004
H         -0.52780       -5.34851       -1.00646
H         -0.80825       -4.84766       -2.67465
H         -2.17884       -5.25043       -1.63294
H         -0.02602        4.47927        1.51072
H         -4.98699        0.94055        1.18892
H         -5.02623        2.57645        1.82305
H         -3.77542       -0.48571        0.12368
H          1.29389       -3.75514       -1.89847
H          4.85405        1.51200       -1.29890
C          1.22934       -0.39643        1.27186
C          2.29612        0.18814        2.13120
H          1.24992       -1.48774        1.27949
O          2.18149        1.05769        2.97941
O          3.48893       -0.36300        1.80692
C          4.66358        0.28280        2.34791
H          4.65042        0.18780        3.43800
H          4.62002        1.34608        2.09544
C          5.87038       -0.39503        1.73144
H          6.78896        0.07703        2.09527
H          5.89998       -1.45758        1.99409
H          5.84025       -0.30943        0.64127
C         -0.52187       -0.40363        2.88530
C          0.09115       -1.39891        3.57007
H         -0.35766        0.63202        3.15179
H         -1.28440       -0.59636        2.14402
H          0.81512       -1.12804        4.33660
C         -0.05223       -2.83206        3.32185
C         -0.90642       -3.34370        2.32492
C          0.71177       -3.74071        4.07779
C         -0.99294       -4.71313        2.09890
H         -1.49567       -2.66933        1.71593
C          0.62286       -5.11364        3.85214
H          1.37999       -3.35942        4.84591
C         -0.23057       -5.60559        2.86131
H         -1.65482       -5.08311        1.32202
H          1.22059       -5.79856        4.44665
H         -0.30025       -6.67456        2.68200
N          0.19450        1.12643       -2.17599
C          0.13494        0.40824       -3.28608
C         -0.08261        2.43277       -2.52946
C         -0.31308        2.49775       -3.87967
N         -0.16986        1.20349       -4.34240
H          0.30389       -0.65468       -3.35554
H         -0.27346        0.89949       -5.30058
H         -0.55888        3.31632       -4.53746
H         -0.09738        3.21619       -1.78828
