110
TS_RR_C2.log	Energy: -1757322.0136527
Fe        -0.58202        0.38489       -0.25543
N          0.76687        1.72622        0.42924
N          0.85803       -1.04602       -0.29251
N         -1.88679       -0.94037       -1.06331
N         -1.94950        1.84693       -0.40001
C          2.18579       -0.87620        0.00115
C          2.89914       -2.14494       -0.11944
C          4.38173       -2.33962       -0.00543
C          5.06961       -2.41690       -1.37905
C          6.59514       -2.71217       -1.32821
C          2.10221        1.50850        0.65871
C          2.73270        2.71635        1.18715
C          4.18045        2.88105        1.54908
C          5.11505        3.11485        0.33901
C          5.48918        1.79778       -0.39010
C          1.74280        3.66249        1.25924
C          0.52676        3.03020        0.77136
C          1.83450        5.08649        1.71501
C         -1.83835        3.13165        0.05988
C         -3.07929        3.86463       -0.17034
C         -3.29630        5.24971        0.22381
C         -4.16876        6.11698       -0.31699
C         -3.94301        2.97874       -0.78294
C         -3.21876        1.73044       -0.91893
C         -5.36339        3.20697       -1.19599
C         -3.14325       -0.67008       -1.53941
C         -3.77099       -1.89728       -2.03329
C         -5.08361       -2.04996       -2.65174
C         -5.72753       -1.16381       -3.42848
C         -2.87018       -2.91182       -1.78746
C         -1.69468       -2.29024       -1.21451
C         -3.00558       -4.37322       -2.08264
C          2.76695        0.30873        0.43419
C         -0.50891       -2.96945       -0.94274
C         -3.76427        0.57053       -1.46125
C         -0.68905        3.68251        0.61796
C          1.95587       -3.08489       -0.44357
C          0.68779       -2.38246       -0.55851
C          2.15564       -4.54863       -0.69088
O          7.23252       -2.46044       -2.38818
O          5.27061        1.73131       -1.62889
O          7.05611       -3.19580       -0.25764
O          5.98782        0.89950        0.34997
H         -5.56643       -3.01205       -2.47939
H         -2.67685        5.60797        1.04550
H          4.26822        3.72302        2.24535
H          4.55224        1.99530        2.07626
H          4.91239       -1.48166       -1.92912
H          4.59399       -3.20393       -1.98331
H         -5.29773       -0.20462       -3.70015
H         -6.70712       -1.39251       -3.83790
H         -4.79693        5.86344       -1.16461
H         -4.25995        7.12687        0.07225
H          6.04762        3.56055        0.71300
H          4.66208        3.82775       -0.35884
H          3.15756       -4.86267       -0.38356
H          2.04228       -4.80283       -1.75341
H          1.42908       -5.15738       -0.13845
H         -2.29457       -4.69793       -2.85317
H         -4.00946       -4.61944       -2.43907
H         -2.80935       -4.97763       -1.18878
H         -5.94745        2.28209       -1.16485
H         -5.43851        3.60462       -2.21732
H         -5.84576        3.93368       -0.53376
H          1.09613        5.30976        2.49541
H          1.64780        5.78745        0.89082
H          2.82518        5.31266        2.11896
H         -0.50342       -4.04095       -1.11172
H          4.84056       -1.52024        0.55601
H          4.60850       -3.26092        0.54208
H          3.83116        0.29418        0.63752
H         -0.72848        4.72355        0.91760
H         -4.78557        0.62728       -1.81245
C         -0.89041       -0.27132        1.42551
C         -0.15255        0.19071        2.63417
H         -1.17558       -1.32263        1.49390
O         -0.37693        1.17884        3.31402
O          0.88608       -0.64159        2.87505
C          1.88125       -0.17314        3.81417
H          1.42449       -0.09854        4.80591
H          2.20031        0.82634        3.50471
C          3.02804       -1.16329        3.78722
H          3.80797       -0.84482        4.48701
H          2.68924       -2.16272        4.07992
H          3.45943       -1.22050        2.78408
C         -3.09635        0.37657        2.11668
C         -3.11230       -0.63471        3.01601
H         -2.76864        1.36739        2.40233
H         -3.50685        0.27083        1.12248
H         -2.71636       -0.44673        4.01255
C         -3.53087       -2.01175        2.75687
C         -4.03265       -2.42787        1.50769
C         -3.39938       -2.97206        3.77713
C         -4.39243       -3.75430        1.29445
H         -4.13302       -1.71549        0.69760
C         -3.75974       -4.30167        3.56226
H         -3.00775       -2.66593        4.74395
C         -4.25864       -4.69819        2.31911
H         -4.77495       -4.05321        0.32358
H         -3.64969       -5.02736        4.36294
H         -4.53952       -5.73328        2.14778
N          0.05981        0.86341       -2.18458
C          0.38945        2.06733       -2.62423
C          0.26327       -0.01454       -3.23121
C          0.72368        0.67864       -4.32106
N          0.79617        1.99824       -3.91696
H          0.34910        2.97826       -2.04822
H          1.10160        2.77803       -4.48257
H          0.99998        0.36934       -5.31664
H          0.06911       -1.06913       -3.11551
