110
TS_RR_C1.log	Energy: -1757321.2658371
Fe         0.40901        0.00462       -0.43395
N         -0.56864       -1.70287       -0.09348
N         -1.31189        1.02771       -0.13050
N          1.35853        1.73501       -0.95299
N          2.09606       -1.02194       -0.87951
C         -2.50406        0.52971        0.32235
C         -3.50352        1.58982        0.41402
C         -4.94536        1.40845        0.78262
C         -5.83848        1.19613       -0.45154
C         -7.36447        1.12334       -0.16142
C         -1.84901       -1.84726        0.37923
C         -2.17154       -3.26037        0.56066
C         -3.48932       -3.76366        1.06621
C         -4.67851       -3.52789        0.10337
C         -5.86896       -2.72440        0.70769
C         -1.06618       -3.96135        0.15965
C         -0.06986       -2.97475       -0.23800
C         -0.85535       -5.44401        0.12360
C          2.23271       -2.38146       -0.93153
C          3.59633       -2.74311       -1.31035
C          4.08146       -4.11172       -1.42249
C          5.11418       -4.54416       -2.16541
C          4.27832       -1.55255       -1.47248
C          3.32176       -0.49629       -1.21050
C          5.72340       -1.34556       -1.80186
C          2.70002        1.90245       -1.18851
C          2.99312        3.31562       -1.42071
C          4.29495        3.93324       -1.64427
C          5.47718        3.53792       -1.14410
C          1.78038        3.97136       -1.37940
C          0.78118        2.97423       -1.05451
C          1.51148        5.43461       -1.55031
C         -2.74885       -0.81075        0.60109
C         -0.56007        3.25990       -0.81457
C          3.60999        0.86176       -1.31928
C          1.21557       -3.29242       -0.65385
C         -2.88389        2.73499       -0.01499
C         -1.51660        2.36794       -0.35277
C         -3.46119        4.11172       -0.14024
O         -8.08190        0.78503       -1.14312
O         -6.94520       -2.78390        0.05781
O         -7.75202        1.41849        1.00204
O         -5.65058       -2.05692        1.76033
H          4.28236        4.83523       -2.25646
H          3.53915       -4.85308       -0.83643
H         -3.40189       -4.83003        1.30159
H         -3.74339       -3.24749        1.99904
H         -5.54179        0.27613       -0.97219
H         -5.66966        2.01034       -1.17159
H          5.57268        2.68595       -0.47783
H          6.38847        4.08207       -1.37420
H          5.68456       -3.88631       -2.81306
H          5.40351       -5.59100       -2.15727
H         -5.06552       -4.47591       -0.28706
H         -4.34066       -2.96211       -0.77538
H         -4.46908        4.15264        0.28293
H         -3.52993        4.43294       -1.18807
H         -2.84816        4.85734        0.38178
H          0.64220        5.61114       -2.19415
H          2.36728        5.94946       -1.99609
H          1.30303        5.92356       -0.58930
H          6.11112       -0.42945       -1.34514
H          5.89579       -1.26910       -2.88401
H          6.32696       -2.18496       -1.44102
H         -0.01142       -5.75022        0.75527
H         -0.63599       -5.79731       -0.89234
H         -1.74306       -5.97806        0.47407
H         -0.87426        4.28933       -0.94995
H         -5.07435        0.55382        1.45395
H         -5.31277        2.28730        1.32356
H         -3.73129       -1.08128        0.97794
H          1.45416       -4.34678       -0.73627
H          4.62039        1.12843       -1.59914
C          1.02554        0.42516        1.23858
C          0.24564        1.23261        2.21618
H          2.10149        0.57747        1.34074
O         -0.62098        0.84547        2.98256
O          0.60283        2.53424        2.11636
C         -0.26241        3.48528        2.77883
H         -0.21971        3.31031        3.85817
H         -1.28796        3.30942        2.44100
C          0.22191        4.87197        2.40754
H         -0.40390        5.62636        2.89586
H          1.25856        5.02380        2.72600
H          0.16376        5.01755        1.32537
C          1.18344       -1.59460        2.51606
C          2.05944       -0.99282        3.35462
H          0.12451       -1.60718        2.73787
H          1.50572       -2.17697        1.66467
H          1.66415       -0.45731        4.21601
C          3.50711       -0.90154        3.17026
C          4.16946       -1.49089        2.07490
C          4.27083       -0.16609        4.09554
C          5.54406       -1.34875        1.91778
H          3.60788       -2.05244        1.33816
C          5.64890       -0.02512        3.93777
H          3.77173        0.29882        4.94205
C          6.29127       -0.61616        2.84717
H          6.03380       -1.80878        1.06529
H          6.21994        0.54721        4.66317
H          7.36429       -0.50627        2.71981
N         -0.15736       -0.14304       -2.43735
C          0.62506        0.05570       -3.48592
C         -1.41064       -0.45699       -2.92626
C         -1.37728       -0.44664       -4.29704
N         -0.07748       -0.11877       -4.63377
H          1.66986        0.32064       -3.44782
H          0.28858       -0.02411       -5.57091
H         -2.13130       -0.63545       -5.04469
H         -2.23073       -0.66318       -2.25659
