110
TS_SS_C4.log	Energy: -1757321.5921734
Fe         0.94923        0.06670       -0.38059
N         -0.36679       -1.44643       -0.58253
N         -0.61332        1.35281       -0.18291
N          2.25443        1.61867       -0.28321
N          2.47211       -1.17195       -0.79101
C         -1.94064        1.03321       -0.05219
C         -2.74476        2.24421        0.08355
C         -4.24108        2.29708        0.15432
C         -4.89250        2.44277       -1.23121
C         -6.43576        2.63555       -1.21275
C         -1.72010       -1.40464       -0.37173
C         -2.31052       -2.72710       -0.56109
C         -3.76973       -3.02218       -0.40024
C         -4.67094       -2.39358       -1.48943
C         -5.84767       -1.52769       -0.94954
C         -1.28312       -3.55849       -0.91993
C         -0.07362       -2.74320       -0.92294
C         -1.32435       -5.02285       -1.23239
C          2.38202       -2.49511       -1.13069
C          3.71069       -3.05244       -1.36287
C          3.96734       -4.44024       -1.72198
C          5.04282       -4.92150       -2.36814
C          4.60546       -2.02568       -1.13386
C          3.81305       -0.86264       -0.78901
C          6.10077       -2.07112       -1.17851
C          3.62187        1.54904       -0.26263
C          4.19261        2.88317       -0.08275
C          5.59778        3.24255        0.06714
C          6.56776        2.50190        0.62786
C          3.12531        3.75696       -0.07153
C          1.92870        2.94786       -0.18211
C          3.13981        5.24528        0.09513
C         -2.45713       -0.25707       -0.09244
C          0.63490        3.46145       -0.15493
C          4.34827        0.39320       -0.51882
C          1.19694       -3.22310       -1.20934
C         -1.86715        3.29483        0.02205
C         -0.53770        2.72178       -0.12771
C         -2.17129        4.76041        0.08220
O         -6.97634        2.88387       -0.10038
O         -6.75797       -1.27698       -1.78189
O         -7.00476        2.54421       -2.33531
O         -5.77256       -1.11976        0.24589
H          5.86388        4.23861       -0.28693
H          3.19641       -5.15339       -1.43208
H         -3.91977       -4.10720       -0.36683
H         -4.11974       -2.61974        0.55712
H         -4.65738        1.56736       -1.85035
H         -4.45028        3.30344       -1.75463
H          6.37819        1.52300        1.05741
H          7.58584        2.87458        0.69204
H          5.84104       -4.28309       -2.73230
H          5.13927       -5.98459       -2.56868
H         -5.08066       -3.15983       -2.15687
H         -4.07293       -1.73171       -2.13033
H         -3.23633        4.93096        0.26368
H         -1.90952        5.26961       -0.85461
H         -1.61279        5.26264        0.88262
H          2.55028        5.74321       -0.68403
H          4.15684        5.64424        0.05174
H          2.71065        5.54540        1.06021
H          6.54685       -1.33941       -0.49767
H          6.49165       -1.86061       -2.18342
H          6.46589       -3.06402       -0.89525
H         -0.69730       -5.60150       -0.54171
H         -0.95914       -5.23301       -2.24590
H         -2.34362       -5.41286       -1.16097
H          0.53680        4.54029       -0.09686
H         -4.64126        1.39714        0.63162
H         -4.56306        3.14172        0.77201
H         -3.52727       -0.37945        0.04787
H          1.27141       -4.26781       -1.48904
H          5.42438        0.49149       -0.57117
C          0.85026       -0.03623        1.44462
C          1.57687        0.88627        2.35976
H         -0.10035       -0.37047        1.86455
O          2.73333        0.80531        2.74024
O          0.76590        1.91340        2.70284
C          1.40054        3.04310        3.34490
H          2.24228        3.36227        2.72349
H          1.79111        2.72513        4.31645
C          0.35467        4.13092        3.47944
H          0.79456        5.01100        3.96019
H         -0.02012        4.42121        2.49400
H         -0.48945        3.79009        4.08795
C          1.87070       -2.08576        2.14400
C          1.23382       -2.01780        3.33686
H          1.46730       -2.63403        1.30435
H          2.87083       -1.68985        2.02705
H          1.72269       -1.48904        4.15309
C         -0.11017       -2.51423        3.62769
C         -0.91457       -3.13411        2.65083
C         -0.64261       -2.33924        4.91854
C         -2.20001       -3.56611        2.96004
H         -0.54145       -3.26654        1.64270
C         -1.93014       -2.77519        5.22856
H         -0.03587       -1.85561        5.68000
C         -2.71429       -3.39073        4.24986
H         -2.80417       -4.03411        2.18917
H         -2.32228       -2.63146        6.23127
H         -3.71917       -3.72766        4.48733
N          0.78432        0.43511       -2.43040
C          1.77254        0.74633       -3.25361
C         -0.37280        0.41118       -3.18456
C         -0.07028        0.71366       -4.48732
N          1.29576        0.92271       -4.51180
H          2.81032        0.84716       -2.97755
H          1.84643        1.16485       -5.32385
H         -0.67773        0.79908       -5.37437
H         -1.32485        0.18343       -2.73167
