110
TS_SS_C3.log	Energy: -1757319.8988767
Fe        -0.92472        0.17918       -0.27885
N          0.26742        1.77535       -0.08887
N          0.70617       -1.02057       -0.44213
N         -2.12110       -1.41691       -0.71179
N         -2.54986        1.38233       -0.21867
C          2.01750       -0.64369       -0.33864
C          2.89876       -1.80711       -0.39369
C          4.39628       -1.77064       -0.38438
C          4.99534       -1.66623       -1.79634
C          6.54600       -1.76411       -1.85561
C          1.64030        1.77888       -0.04261
C          2.14124        3.12340        0.22855
C          3.58983        3.46755        0.41002
C          4.49220        3.21002       -0.81902
C          5.67132        2.21749       -0.58611
C          1.03838        3.93113        0.32760
C         -0.12353        3.07547        0.12987
C          0.97024        5.40263        0.60072
C         -2.57029        2.72538        0.03142
C         -3.94339        3.22279        0.05298
C         -4.30859        4.60797        0.31202
C         -5.43990        5.23181       -0.05918
C         -4.75031        2.12882       -0.18962
C         -3.86015        0.99865       -0.36867
C         -6.24533        2.07141       -0.23384
C         -3.48387       -1.40493       -0.85475
C         -3.97163       -2.75809       -1.12128
C         -5.34334       -3.18449       -1.37574
C         -6.31319       -2.49177       -1.99473
C         -2.86546       -3.57985       -1.07484
C         -1.72417       -2.72445       -0.82973
C         -2.79671       -5.06249       -1.27430
C          2.45692        0.66241       -0.16638
C         -0.41197       -3.18068       -0.73876
C         -4.29032       -0.29011       -0.66695
C         -1.43674        3.51792        0.19298
C          2.07941       -2.89673       -0.52759
C          0.71440       -2.38977       -0.56307
C          2.46491       -4.33920       -0.64723
O          7.13709       -2.22734       -0.84180
O          6.52346        2.17375       -1.51042
O          7.07098       -1.38873       -2.94014
O          5.66404        1.52456        0.47398
H         -5.58049       -4.19599       -1.04549
H         -3.57478        5.19182        0.86701
H          3.67002        4.51402        0.72334
H          4.00414        2.85927        1.22362
H          4.68683       -0.72491       -2.26884
H          4.58256       -2.46656       -2.42925
H         -6.15106       -1.50023       -2.40588
H         -7.30275       -2.91912       -2.12790
H         -6.21019        4.74621       -0.64912
H         -5.61344        6.27013        0.20826
H          4.91402        4.14726       -1.19999
H          3.89925        2.79833       -1.64610
H          3.53660       -4.47262       -0.47258
H          2.24098       -4.74026       -1.64486
H          1.92688       -4.96617        0.07508
H         -2.22982       -5.32277       -2.17752
H         -3.79348       -5.49988       -1.37609
H         -2.29804       -5.55684       -0.43144
H         -6.62017        1.08274        0.04851
H         -6.64007        2.29510       -1.23451
H         -6.68063        2.80613        0.45205
H          0.41949        5.61935        1.52528
H          0.45757        5.94018       -0.20740
H          1.96999        5.83403        0.70211
H         -0.25534       -4.25006       -0.83351
H          4.75818       -0.92719        0.21100
H          4.79567       -2.67455        0.08683
H          3.52375        0.81889       -0.05318
H         -1.58669        4.57736        0.36746
H         -5.35816       -0.44640       -0.73925
C         -1.07134       -0.39111        1.49416
C         -2.37126       -0.63249        2.19060
H         -0.34381       -1.15248        1.77796
O         -3.12851        0.19267        2.67622
O         -2.65517       -1.95702        2.18563
C         -3.99240       -2.32985        2.58826
H         -4.70201       -1.82400        1.92676
H         -4.16498       -1.98106        3.61090
C         -4.09532       -3.83746        2.47498
H         -5.09845       -4.16294        2.77045
H         -3.91466       -4.15348        1.44402
H         -3.36692       -4.32924        3.12828
C         -0.28661        1.18862        2.96556
C          0.24673        0.21340        3.75066
H          0.31501        1.73649        2.25539
H         -1.28602        1.55799        3.15168
H         -0.40362       -0.29303        4.46317
C          1.60591       -0.30755        3.64676
C          2.63226        0.40754        3.00012
C          1.90491       -1.57960        4.17318
C          3.90453       -0.13669        2.85431
H          2.42833        1.39394        2.60169
C          3.17834       -2.12694        4.03009
H          1.12451       -2.14078        4.68114
C          4.17871       -1.40907        3.36659
H          4.66024        0.42208        2.30900
H          3.39011       -3.11383        4.43167
H          5.16796       -1.84154        3.24610
N         -0.84412        0.46961       -2.34417
C         -1.08087        1.60800       -2.97620
C         -0.53083       -0.46634       -3.31056
C         -0.58039        0.12460       -4.54710
N         -0.93051        1.44090       -4.31479
H         -1.35066        2.54130       -2.50784
H         -1.05106        2.15769       -5.01681
H         -0.40524       -0.25373       -5.54179
H         -0.29690       -1.48401       -3.04112
