110
TS_SS_C1.log	Energy: -1757321.7607852
Fe        -0.40450        0.08717       -0.45179
N          0.88921        1.56759        0.00969
N          1.07825       -1.24208       -0.25214
N         -1.68245       -1.37739       -1.02692
N         -1.84505        1.46938       -0.86373
C          2.34725       -1.01325        0.21970
C          3.12242       -2.25014        0.22729
C          4.56679       -2.37763        0.60799
C          5.51194       -2.26357       -0.59947
C          7.01333       -2.51610       -0.28053
C          2.16726        1.43166        0.47934
C          2.75440        2.73911        0.76130
C          4.14439        2.94108        1.28210
C          5.26197        2.56863        0.27698
C          6.28379        1.50788        0.78531
C          1.80556        3.66579        0.42053
C          0.64426        2.91697       -0.04644
C          1.87937        5.16031        0.49505
C         -1.70608        2.82769       -0.82328
C         -2.96890        3.47591       -1.16688
C         -3.16431        4.91780       -1.21008
C         -4.12303        5.58932       -1.87115
C         -3.87801        2.45863       -1.38603
C         -3.15463        1.21724       -1.20093
C         -5.33413        2.56989       -1.71317
C         -3.02185       -1.25634       -1.29427
C         -3.59171       -2.56369       -1.61819
C         -4.98335       -2.88615       -1.91494
C         -6.07750       -2.30189       -1.39976
C         -2.54063       -3.45637       -1.59314
C         -1.36722       -2.70065       -1.20474
C         -2.57057       -4.93449       -1.83054
C          2.84871        0.22599        0.60273
C         -0.10405       -3.25546       -1.00965
C         -3.70471       -0.04802       -1.37746
C         -0.54028        3.50124       -0.46937
C          2.29359       -3.22377       -0.26462
C          1.01958       -2.58296       -0.55142
C          2.59795       -4.67339       -0.48756
O          7.29165       -3.01361        0.84476
O          7.34329        1.41471        0.11213
O          7.81995       -2.21203       -1.20215
O          5.95628        0.81358        1.79107
H         -5.13132       -3.71674       -2.60532
H         -2.44533        5.50831       -0.64351
H          4.26159        3.98099        1.60640
H          4.30118        2.30831        2.16317
H          5.41545       -1.27218       -1.06049
H          5.20573       -2.98194       -1.37460
H         -6.01899       -1.51069       -0.65897
H         -7.07204       -2.62661       -1.69118
H         -4.85954        5.09731       -2.49732
H         -4.17855        6.67247       -1.81391
H          5.81898        3.45696       -0.04139
H          4.81832        2.15450       -0.63849
H          3.58417       -4.93078       -0.09055
H          2.59413       -4.93129       -1.55497
H          1.86053       -5.32406       -0.00070
H         -3.53178       -5.25464       -2.24193
H         -2.41138       -5.49272       -0.89846
H         -1.78498       -5.24705       -2.52856
H         -5.89052        1.68728       -1.38327
H         -5.50892        2.68082       -2.79210
H         -5.77394        3.44750       -1.22701
H          1.09262        5.57339        1.13963
H          1.75592        5.62291       -0.49280
H          2.84275        5.48893        0.89508
H          0.00036       -4.31910       -1.19564
H          4.84640       -1.61084        1.33670
H          4.74776       -3.34405        1.09022
H          3.86486        0.26845        0.98449
H         -0.56734        4.58473       -0.48329
H         -4.74410       -0.09567       -1.67327
C         -1.13518        0.10807        1.22794
C         -0.72148        1.07064        2.28549
H         -2.18834       -0.16825        1.31076
O          0.23785        0.99136        3.03465
O         -1.56226        2.13144        2.28449
C         -1.13398        3.28845        3.03863
H         -0.13222        3.56690        2.69847
H         -1.07612        3.02015        4.09791
C         -2.14302        4.38974        2.78425
H         -1.85126        5.29345        3.32959
H         -2.19058        4.62519        1.71747
H         -3.14162        4.09097        3.11992
C         -0.51754       -1.91022        2.33631
C         -1.50345       -1.74889        3.25059
H         -0.64903       -2.50416        1.44264
H          0.48389       -1.55370        2.53677
H         -1.27995       -1.18653        4.15533
C         -2.88962       -2.19054        3.11325
C         -3.37526       -2.80161        1.93976
C         -3.78784       -1.97319        4.17457
C         -4.70805       -3.18735        1.84000
H         -2.71271       -2.96254        1.09783
C         -5.12244       -2.36384        4.07581
H         -3.42829       -1.49490        5.08224
C         -5.58757       -2.97218        2.90741
H         -5.06490       -3.63886        0.92027
H         -5.79922       -2.18963        4.90741
H         -6.62836       -3.27193        2.82510
N          0.18403        0.30759       -2.44380
C         -0.61243        0.29720       -3.50055
C          1.47052        0.48858       -2.91348
C          1.44325        0.58827       -4.28078
N          0.11299        0.46511       -4.63510
H         -1.68396        0.17658       -3.47734
H         -0.25767        0.49336       -5.57482
H          2.21975        0.73073       -5.01559
H          2.30748        0.53074       -2.23442
