110
TS_SS_C5.log	Energy: -1757321.6425247
Fe         0.54739        0.48603       -0.27699
N         -0.29106       -1.31225       -0.71253
N         -1.24639        1.16725        0.36450
N          1.31966        2.32392       -0.04508
N          2.30774       -0.18255       -1.02903
C         -2.43394        0.48092        0.36467
C         -3.49681        1.29636        0.94858
C         -4.94483        0.91815        1.03366
C         -5.74118        1.36855       -0.20280
C         -7.27278        1.11088       -0.12588
C         -1.60821       -1.65862       -0.56312
C         -1.80856       -3.06290       -0.91968
C         -3.12146       -3.78536       -0.86291
C         -4.23325       -3.21261       -1.77237
C         -5.49102       -2.67345       -1.02644
C         -0.57667       -3.54922       -1.26915
C          0.36214       -2.44311       -1.13594
C         -0.19702       -4.92744       -1.71724
C          2.62055       -1.46253       -1.39171
C          4.01704       -1.54970       -1.80555
C          4.67703       -2.78678       -2.19481
C          5.80729       -2.91997       -2.91101
C          4.53365       -0.27238       -1.68975
C          3.44977        0.56189       -1.21000
C          5.93768        0.18249       -1.93798
C          2.56568        2.74737       -0.43720
C          2.74588        4.15927       -0.10092
C          3.89394        5.01162       -0.39011
C          4.71509        4.94117       -1.45048
C          1.59570        4.54819        0.55173
C          0.71120        3.40208        0.54944
C          1.24847        5.89618        1.10406
C         -2.61053       -0.82166       -0.08734
C         -0.59522        3.42586        1.03107
C          3.55787        1.92689       -0.95819
C          1.71543       -2.52255       -1.42734
C         -2.91321        2.48444        1.30461
C         -1.51343        2.39262        0.91894
C         -3.55691        3.68508        1.92704
O         -7.76215        0.86504        1.01063
O         -6.46634       -2.37862       -1.76515
O         -7.89232        1.19970       -1.22160
O         -5.42449       -2.55274        0.23206
H          4.06771        5.81283        0.32843
H          4.19334       -3.70097       -1.85298
H         -2.95127       -4.84152       -1.09774
H         -3.51491       -3.74550        0.15961
H         -5.34851        0.87748       -1.10220
H         -5.58806        2.44676       -0.36166
H          4.58212        4.21258       -2.24429
H          5.53935        5.63944       -1.56249
H          6.34336       -2.07353       -3.32632
H          6.21650       -3.90435       -3.11840
H         -4.57276       -3.96390       -2.49509
H         -3.84447       -2.38164       -2.37529
H         -4.58235        3.46275        2.23651
H         -3.59963        4.53212        1.22932
H         -3.00631        4.02929        2.81159
H          0.45516        6.37931        0.51857
H          2.11218        6.56658        1.09875
H          0.88460        5.82519        2.13607
H          6.17206        1.09450       -1.38146
H          6.12512        0.39038       -3.00013
H          6.65281       -0.59005       -1.63359
H          0.53956       -5.38457       -1.04377
H          0.25238       -4.91686       -2.71871
H         -1.06734       -5.58840       -1.75284
H         -0.93869        4.34995        1.48383
H         -5.06072       -0.16474        1.14275
H         -5.40627        1.37207        1.91687
H         -3.60264       -1.25086        0.00367
H          2.08699       -3.48590       -1.75720
H          4.51968        2.38620       -1.14204
C          0.88661       -0.29797        1.34439
C         -0.06023       -0.25301        2.49431
H          1.47596       -1.21715        1.33227
O         -0.18872        0.64050        3.31557
O         -0.83126       -1.36406        2.49859
C         -1.97664       -1.34087        3.38363
H         -2.53318       -0.41738        3.20028
H         -1.61745       -1.32744        4.41755
C         -2.81475       -2.56874        3.08934
H         -3.64732       -2.61901        3.79981
H         -3.22737       -2.53018        2.07783
H         -2.21892       -3.48169        3.19625
C          2.71428        0.85448        2.36034
C          2.93791       -0.18497        3.19908
H          3.23704        0.96301        1.42042
H          2.08635        1.68181        2.66329
H          2.41163       -0.19898        4.15174
C          3.75883       -1.36202        2.92048
C          4.40745       -1.55601        1.68460
C          3.88034       -2.36267        3.90253
C          5.15094       -2.70719        1.44515
H          4.31900       -0.81167        0.90300
C          4.63059       -3.51342        3.66472
H          3.37845       -2.23029        4.85777
C          5.26851       -3.69037        2.43439
H          5.63089       -2.84120        0.48026
H          4.71347       -4.27319        4.43660
H          5.84869       -4.58883        2.24470
N         -0.01980        1.05930       -2.20390
C          0.18744        0.36466       -3.31102
C         -0.69347        2.20755       -2.57208
C         -0.89332        2.20031       -3.92878
N         -0.32781        1.02268       -4.37996
H          0.68591       -0.59002       -3.36819
H         -0.30212        0.70382       -5.33855
H         -1.36957        2.89916       -4.59810
H         -0.97967        2.94197       -1.83576
